data_hexagonal

_audit_creation_method generated by ABACUS

_cell_length_a 3.18226
_cell_length_b 3.18226
_cell_length_c 19
_cell_angle_alpha 90
_cell_angle_beta 90
_cell_angle_gamma 120

loop_
_atom_site_label
_atom_site_fract_x
_atom_site_fract_y
_atom_site_fract_z
Mo 0.666666 0.333333 0.484475
S 0 0 0.58137
S 0 0 0.38758
