data_none

_audit_creation_method generated by ABACUS

_cell_length_a 6.08
_cell_length_b 6.08
_cell_length_c 36.5
_cell_angle_alpha 90
_cell_angle_beta 90
_cell_angle_gamma 120

loop_
_atom_site_label
_atom_site_fract_x
_atom_site_fract_y
_atom_site_fract_z
Mo 0.333333 0.166667 0.044521
Mo 0.833333 0.166667 0.044521
Mo 0.333333 0.666667 0.044521
Mo 0.833333 0.666667 0.044521
Mo 0.333333 0.166667 0.544521
Mo 0.833333 0.166667 0.544521
Mo 0.333333 0.666667 0.544521
Mo 0.833333 0.666667 0.544521
S 0.999714 0 0.999714
S 0.5 0 0
S 0 0.5 0
S 0.5 0.5 0
S 0 0 0.5
S 0.5 0 0.5
S 0 0.5 0.5
S 0.5 0.5 0.5
S 0 0 0.089041
S 0.5 0 0.089041
S 0 0.5 0.089041
S 0.5 0.5 0.089041
S 0 0 0.589041
S 0.5 0 0.589041
S 0 0.5 0.589041
S 0.5 0.5 0.589041
